/*--------------------------------*- C++ -*----------------------------------*\
  =========                 |
  \\      /  F ield         | OpenFOAM: The Open Source CFD Toolbox
   \\    /   O peration     | Website:  https://openfoam.org
    \\  /    A nd           | Version:  9
     \\/     M anipulation  |
\*---------------------------------------------------------------------------*/
FoamFile
{
    format      ascii;
    class       dictionary;
    object      decomposeParDict;
}

// * * * * * * * * * * * * * * * * * * * * * * * * * * * * * * * * * * * * * //

// number of subdomains to replace

method          hierarchical;
// method          ptscotch;

simpleCoeffs
{
    n               (4 1 1);
}

// hierarchicalCoeffs to replace


manualCoeffs
{
    dataFile        "cellDecomposition";
}


// ************************************************************************* //
