/*--------------------------------*- C++ -*----------------------------------*\
  =========                 |
  \\      /  F ield         | OpenFOAM: The Open Source CFD Toolbox
   \\    /   O peration     | Website:  https://openfoam.org
    \\  /    A nd           | Version:  9
     \\/     M anipulation  |
\*---------------------------------------------------------------------------*/
FoamFile
{
    format      ascii;
    class       volScalarField;
    object      k;
}
// * * * * * * * * * * * * * * * * * * * * * * * * * * * * * * * * * * * * * //

// kInlet          1.5;   // approx k = 1.5*(I*U)^2 ; I = 0.1

#include        "include/initialConditions"

dimensions      [0 2 -2 0 0 0 0];

internalField   uniform $turbulentKE;

boundaryField
{
    inlet
    {
        type            atmBoundaryLayerInletK;
        #include        "include/ABLConditions"
    }

    outlet
    {
        type            inletOutlet;
        inletValue      uniform $turbulentKE;
        value           $internalField;
    }

    wall
    {
        type            kqRWallFunction;
        value           uniform 0.0;
    }

    #includeEtc "caseDicts/setConstraintTypes"
}

// ************************************************************************* //
